 .Sol file Watershed HRU:20 Subbasin:3 HRU:9 Luse:SWRN Soil: GZCGT Slope: 60-9999 2013/5/3 0:00:00 ArcSWAT 2.3.4
 Soil Name: GZCGT
 Soil Hydrologic Group: D
 Maximum rooting depth(m) :  100.00
 Porosity fraction from which anions are excluded: 0.500
 Crack volume potential of soil: 0.500
 Texture 1                : STX-L-GR--FSL-GR--FSL
 Depth                [mm]:      100.00      310.00
 Bulk Density Moist [g/cc]:        1.45        1.46
 Ave. AW Incl. Rock Frag  :        0.10        0.12
 Ksat. (est.)      [mm/hr]:        0.03        0.04
 Organic Carbon [weight %]:        6.16        0.50
 Clay           [weight %]:        0.00        0.00
 Silt           [weight %]:        0.60        0.60
 Sand           [weight %]:       99.40       99.40
 Rock Fragments   [vol. %]:       66.70       74.00
 Soil Albedo (Moist)      :        0.20        0.22
 Erosion K                :        0.10        0.14
 Salinity (EC, Form 5)    :        0.00        0.00
                              
