 .Sol file Watershed HRU:9 Subbasin:2 HRU:6 Luse:SWRN Soil: HZMT Slope: 0-20 2013/5/3 0:00:00 ArcSWAT 2.3.4
 Soil Name: HZMT
 Soil Hydrologic Group: B
 Maximum rooting depth(m) :  400.00
 Porosity fraction from which anions are excluded: 0.500
 Crack volume potential of soil: 0.500
 Texture 1                : SIL-UWB
 Depth                [mm]:       15.00       50.00      230.00      400.00
 Bulk Density Moist [g/cc]:        1.50        1.53        1.60        1.60
 Ave. AW Incl. Rock Frag  :        0.12        0.11        0.04        0.04
 Ksat. (est.)      [mm/hr]:        1.55        1.06       29.60       30.60
 Organic Carbon [weight %]:        0.50        0.50        0.50        0.50
 Clay           [weight %]:        5.60       10.40        1.60        0.00
 Silt           [weight %]:       36.80       39.37       11.56       12.45
 Sand           [weight %]:       57.60       50.23       86.84       87.55
 Rock Fragments   [vol. %]:       17.30       27.80       43.90       41.90
 Soil Albedo (Moist)      :        0.22        0.22        0.22        0.22
 Erosion K                :        0.30        0.31        0.13        0.13
 Salinity (EC, Form 5)    :        0.00        0.00        0.00        0.00
                              
