 .Sol file Watershed HRU:10 Subbasin:2 HRU:7 Luse:SWRN Soil: ZGT Slope: 0-20 2013/5/3 0:00:00 ArcSWAT 2.3.4
 Soil Name: ZGT
 Soil Hydrologic Group: D
 Maximum rooting depth(m) : 1100.00
 Porosity fraction from which anions are excluded: 0.500
 Crack volume potential of soil: 0.500
 Texture 1                : SIL-UWB
 Depth                [mm]:      190.00      350.00      600.00      780.00     1100.00
 Bulk Density Moist [g/cc]:        1.35        1.32        1.28        1.26        1.24
 Ave. AW Incl. Rock Frag  :        0.12        0.12        0.12        0.12        0.12
 Ksat. (est.)      [mm/hr]:        0.30        0.47        0.63        0.56        0.60
 Organic Carbon [weight %]:        0.94        0.76        0.68        0.54        0.50
 Clay           [weight %]:       15.40       20.20       23.20       22.50       23.80
 Silt           [weight %]:       54.01       55.21       56.52       58.90       59.61
 Sand           [weight %]:       30.59       24.59       20.28       18.60       16.59
 Rock Fragments   [vol. %]:        0.00        0.00        0.00        0.00        0.00
 Soil Albedo (Moist)      :        0.22        0.22        0.22        0.22        0.22
 Erosion K                :        0.35        0.37        0.39        0.40        0.41
 Salinity (EC, Form 5)    :        0.00        0.00        0.00        0.00        0.00
                              
