 .Sol file Watershed HRU:78 Subbasin:17 HRU:5 Luse:PAST Soil: LGCDT Slope: 0-20 2013/5/3 0:00:00 ArcSWAT 2.3.4
 Soil Name: LGCDT
 Soil Hydrologic Group: C
 Maximum rooting depth(m) : 1100.00
 Porosity fraction from which anions are excluded: 0.500
 Crack volume potential of soil: 0.500
 Texture 1                : SIL-UWB
 Depth                [mm]:       50.00      180.00      280.00      360.00      530.00      690.00      880.00     1100.00
 Bulk Density Moist [g/cc]:        1.37        1.33        1.30        1.22        1.41        1.33        1.59        1.61
 Ave. AW Incl. Rock Frag  :        0.11        0.12        0.13        0.12        0.14        0.16        0.08        0.08
 Ksat. (est.)      [mm/hr]:        5.46        0.72        1.41        1.76        1.65        2.41        6.81        6.52
 Organic Carbon [weight %]:        4.36        1.10        0.92        0.54        0.50        0.50        0.50        0.50
 Clay           [weight %]:        5.00       22.00       32.00       37.00       34.00       32.00        6.00        6.00
 Silt           [weight %]:       32.63       51.63       50.74       55.74       41.44       61.65       27.76       27.76
 Sand           [weight %]:       62.37       26.37       17.26        7.26       24.56        6.35       66.24       66.24
 Rock Fragments   [vol. %]:        0.00        0.00        0.00        0.00        0.00        0.00        0.00        0.00
 Soil Albedo (Moist)      :        0.21        0.22        0.22        0.22        0.22        0.22        0.22        0.22
 Erosion K                :        0.21        0.34        0.36        0.40        0.34        0.42        0.26        0.26
 Salinity (EC, Form 5)    :        0.00        0.00        0.00        0.00        0.00        0.00        0.00        0.00
                              
