 .Sol file Watershed HRU:140 Subbasin:25 HRU:1 Luse:PAST Soil: GSCDT Slope: 20-40 2013/5/3 0:00:00 ArcSWAT 2.3.4
 Soil Name: GSCDT
 Soil Hydrologic Group: C
 Maximum rooting depth(m) :  700.00
 Porosity fraction from which anions are excluded: 0.500
 Crack volume potential of soil: 0.500
 Texture 1                : SIL-UWB
 Depth                [mm]:      250.00      700.00      900.00
 Bulk Density Moist [g/cc]:        1.25        1.31        1.44
 Ave. AW Incl. Rock Frag  :        0.10        0.12        0.12
 Ksat. (est.)      [mm/hr]:        3.39        4.43        0.90
 Organic Carbon [weight %]:        9.35        1.87        0.98
 Clay           [weight %]:       26.12       13.67       15.76
 Silt           [weight %]:       51.87       38.47       43.94
 Sand           [weight %]:       22.01       47.86       40.30
 Rock Fragments   [vol. %]:        0.00        0.00        0.00
 Soil Albedo (Moist)      :        0.19        0.22        0.22
 Erosion K                :        0.28        0.24        0.31
 Salinity (EC, Form 5)    :        0.00        0.00        0.00
                              
