 .sub file Subbasin: 24 2013/5/3 0:00:00 ArcSWAT 2.3.4
      150.579000    | SUB_KM : Subbasin area [km2]

Climate in subbasin
       38.912697    | LATITUDE : Latitude of subbasin [degrees]
         3660.00    | ELEV : Elevation of subbasin [m]
               2    | IRGAGE: precip gage data used in subbasin
               2    | ITGAGE: temp gage data used in subbasin
               2    | ISGAGE: solar radiation gage data used in subbasin
               2    | IHGAGE: relative humidity gage data used in subbasin
               2    | IWGAGE: wind speed gage data used in subbasin
000240000.wgn       | WGNFILE: name of weather generator data file
               1    | FCST_REG: Region number used to assign forecast data to the subbasin
Elevation Bands
| ELEVB: Elevation at center of elevation bands [m]
3486.0003986.0004669.000   0.000   0.000   0.000   0.000   0.000   0.000   0.000
| ELEVB_FR: Fraction of subbasin area within elevation band
   0.229   0.525   0.246   0.000   0.000   0.000   0.000   0.000   0.000   0.000
| SNOEB: Initial snow water content in elevation band [mm]
   0.000   0.000   0.000   0.000   0.000   0.000   0.000   0.000   0.000   0.000
          13.000    | PLAPS : Precipitation lapse rate [mm/km]
          -6.600    | TLAPS : Temperature lapse rate [°„C/km]
         150.000    | SNO_SUB : Initial snow water content [mm]
Tributary Channels
          21.538    | CH_L1 : Longest tributary channel length [km]
           0.077    | CH_S1 : Average slope of tributary channel [m/m]
          26.137    | CH_W1 : Average width of tributary channel [mm/km]
           2.000    | CH_K1 : Effective hydraulic conductivity in tributary channel [mm/hr]
           0.014    | CH_N1 : Manning's "n" value for the tributary channels
Impoundments
000240000.pnd       | PNDFILE: name of subbasin impoundment file
Consumptive Water Use
000240000.wus       | WUSFILE: name of subbasin water use file
Climate Change
         330.000    | CO2 : Carbon dioxide concentration [ppmv]
| RFINC:  Climate change monthly rainfall adjustment (January - June)
   0.000   0.000   0.000   0.000   0.000   0.000
| RFINC:  Climate change monthly rainfall adjustment (July - December)
   0.000   0.000   0.000   0.000   0.000   0.000
| TMPINC: Climate change monthly temperature adjustment (January - June)
   0.000   0.000   0.000   0.000   0.000   0.000
| TMPINC: Climate change monthly temperature adjustment (July - December)
   0.000   0.000   0.000   0.000   0.000   0.000
| RADINC: Climate change monthly radiation adjustment (January - June)
   0.000   0.000   0.000   0.000   0.000   0.000
| RADINC: Climate change monthly radiation adjustment (July - December)
   0.000   0.000   0.000   0.000   0.000   0.000
| HUMINC: Climate change monthly humidity adjustment (January - June)
   0.000   0.000   0.000   0.000   0.000   0.000
| HUMINC: Climate change monthly humidity adjustment (July - December)
   0.000   0.000   0.000   0.000   0.000   0.000
| HRU data
              11    | HRUTOT : Total number of HRUs modeled in subbasin

HRU: Depressional Storage/Pothole

Floodplain

HRU: Riparian

HRU: General
000240001.hru000240001.mgt000240001.sol000240001.chm 000240001.gw
000240002.hru000240002.mgt000240002.sol000240002.chm 000240002.gw
000240003.hru000240003.mgt000240003.sol000240003.chm 000240003.gw
000240004.hru000240004.mgt000240004.sol000240004.chm 000240004.gw
000240005.hru000240005.mgt000240005.sol000240005.chm 000240005.gw
000240006.hru000240006.mgt000240006.sol000240006.chm 000240006.gw
000240007.hru000240007.mgt000240007.sol000240007.chm 000240007.gw
000240008.hru000240008.mgt000240008.sol000240008.chm 000240008.gw
000240009.hru000240009.mgt000240009.sol000240009.chm 000240009.gw
000240010.hru000240010.mgt000240010.sol000240010.chm 000240010.gw
000240011.hru000240011.mgt000240011.sol000240011.chm 000240011.gw
