 .sub file Subbasin: 27 2013/5/3 0:00:00 ArcSWAT 2.3.4
      377.819100    | SUB_KM : Subbasin area [km2]

Climate in subbasin
       38.780987    | LATITUDE : Latitude of subbasin [degrees]
         4344.00    | ELEV : Elevation of subbasin [m]
               2    | IRGAGE: precip gage data used in subbasin
               2    | ITGAGE: temp gage data used in subbasin
               2    | ISGAGE: solar radiation gage data used in subbasin
               2    | IHGAGE: relative humidity gage data used in subbasin
               2    | IWGAGE: wind speed gage data used in subbasin
000270000.wgn       | WGNFILE: name of weather generator data file
               1    | FCST_REG: Region number used to assign forecast data to the subbasin
Elevation Bands
| ELEVB: Elevation at center of elevation bands [m]
3943.0004443.0005123.000   0.000   0.000   0.000   0.000   0.000   0.000   0.000
| ELEVB_FR: Fraction of subbasin area within elevation band
   0.136   0.623   0.242   0.000   0.000   0.000   0.000   0.000   0.000   0.000
| SNOEB: Initial snow water content in elevation band [mm]
   0.000   0.000   0.000   0.000   0.000   0.000   0.000   0.000   0.000   0.000
          14.000    | PLAPS : Precipitation lapse rate [mm/km]
          -6.600    | TLAPS : Temperature lapse rate [°„C/km]
         150.000    | SNO_SUB : Initial snow water content [mm]
Tributary Channels
          39.691    | CH_L1 : Longest tributary channel length [km]
           0.041    | CH_S1 : Average slope of tributary channel [m/m]
          45.390    | CH_W1 : Average width of tributary channel [mm/km]
           2.000    | CH_K1 : Effective hydraulic conductivity in tributary channel [mm/hr]
           0.014    | CH_N1 : Manning's "n" value for the tributary channels
Impoundments
000270000.pnd       | PNDFILE: name of subbasin impoundment file
Consumptive Water Use
000270000.wus       | WUSFILE: name of subbasin water use file
Climate Change
         330.000    | CO2 : Carbon dioxide concentration [ppmv]
| RFINC:  Climate change monthly rainfall adjustment (January - June)
   0.000   0.000   0.000   0.000   0.000   0.000
| RFINC:  Climate change monthly rainfall adjustment (July - December)
   0.000   0.000   0.000   0.000   0.000   0.000
| TMPINC: Climate change monthly temperature adjustment (January - June)
   0.000   0.000   0.000   0.000   0.000   0.000
| TMPINC: Climate change monthly temperature adjustment (July - December)
   0.000   0.000   0.000   0.000   0.000   0.000
| RADINC: Climate change monthly radiation adjustment (January - June)
   0.000   0.000   0.000   0.000   0.000   0.000
| RADINC: Climate change monthly radiation adjustment (July - December)
   0.000   0.000   0.000   0.000   0.000   0.000
| HUMINC: Climate change monthly humidity adjustment (January - June)
   0.000   0.000   0.000   0.000   0.000   0.000
| HUMINC: Climate change monthly humidity adjustment (July - December)
   0.000   0.000   0.000   0.000   0.000   0.000
| HRU data
               4    | HRUTOT : Total number of HRUs modeled in subbasin

HRU: Depressional Storage/Pothole

Floodplain

HRU: Riparian

HRU: General
000270001.hru000270001.mgt000270001.sol000270001.chm 000270001.gw
000270002.hru000270002.mgt000270002.sol000270002.chm 000270002.gw
000270003.hru000270003.mgt000270003.sol000270003.chm 000270003.gw
000270004.hru000270004.mgt000270004.sol000270004.chm 000270004.gw
