 .sub file Subbasin: 22 2013/5/3 0:00:00 ArcSWAT 2.3.4
      253.108800    | SUB_KM : Subbasin area [km2]

Climate in subbasin
       38.933561    | LATITUDE : Latitude of subbasin [degrees]
         4294.00    | ELEV : Elevation of subbasin [m]
               2    | IRGAGE: precip gage data used in subbasin
               2    | ITGAGE: temp gage data used in subbasin
               2    | ISGAGE: solar radiation gage data used in subbasin
               2    | IHGAGE: relative humidity gage data used in subbasin
               2    | IWGAGE: wind speed gage data used in subbasin
000220000.wgn       | WGNFILE: name of weather generator data file
               1    | FCST_REG: Region number used to assign forecast data to the subbasin
Elevation Bands
| ELEVB: Elevation at center of elevation bands [m]
3299.0003799.0004299.0004913.000   0.000   0.000   0.000   0.000   0.000   0.000
| ELEVB_FR: Fraction of subbasin area within elevation band
   0.129   0.410   0.395   0.066   0.000   0.000   0.000   0.000   0.000   0.000
| SNOEB: Initial snow water content in elevation band [mm]
   0.000   0.000   0.000   0.000   0.000   0.000   0.000   0.000   0.000   0.000
          12.000    | PLAPS : Precipitation lapse rate [mm/km]
          -6.600    | TLAPS : Temperature lapse rate [°„C/km]
         150.000    | SNO_SUB : Initial snow water content [mm]
Tributary Channels
          32.833    | CH_L1 : Longest tributary channel length [km]
           0.065    | CH_S1 : Average slope of tributary channel [m/m]
          35.692    | CH_W1 : Average width of tributary channel [mm/km]
           2.000    | CH_K1 : Effective hydraulic conductivity in tributary channel [mm/hr]
           0.014    | CH_N1 : Manning's "n" value for the tributary channels
Impoundments
000220000.pnd       | PNDFILE: name of subbasin impoundment file
Consumptive Water Use
000220000.wus       | WUSFILE: name of subbasin water use file
Climate Change
         330.000    | CO2 : Carbon dioxide concentration [ppmv]
| RFINC:  Climate change monthly rainfall adjustment (January - June)
   0.000   0.000   0.000   0.000   0.000   0.000
| RFINC:  Climate change monthly rainfall adjustment (July - December)
   0.000   0.000   0.000   0.000   0.000   0.000
| TMPINC: Climate change monthly temperature adjustment (January - June)
   0.000   0.000   0.000   0.000   0.000   0.000
| TMPINC: Climate change monthly temperature adjustment (July - December)
   0.000   0.000   0.000   0.000   0.000   0.000
| RADINC: Climate change monthly radiation adjustment (January - June)
   0.000   0.000   0.000   0.000   0.000   0.000
| RADINC: Climate change monthly radiation adjustment (July - December)
   0.000   0.000   0.000   0.000   0.000   0.000
| HUMINC: Climate change monthly humidity adjustment (January - June)
   0.000   0.000   0.000   0.000   0.000   0.000
| HUMINC: Climate change monthly humidity adjustment (July - December)
   0.000   0.000   0.000   0.000   0.000   0.000
| HRU data
              11    | HRUTOT : Total number of HRUs modeled in subbasin

HRU: Depressional Storage/Pothole

Floodplain

HRU: Riparian

HRU: General
000220001.hru000220001.mgt000220001.sol000220001.chm 000220001.gw
000220002.hru000220002.mgt000220002.sol000220002.chm 000220002.gw
000220003.hru000220003.mgt000220003.sol000220003.chm 000220003.gw
000220004.hru000220004.mgt000220004.sol000220004.chm 000220004.gw
000220005.hru000220005.mgt000220005.sol000220005.chm 000220005.gw
000220006.hru000220006.mgt000220006.sol000220006.chm 000220006.gw
000220007.hru000220007.mgt000220007.sol000220007.chm 000220007.gw
000220008.hru000220008.mgt000220008.sol000220008.chm 000220008.gw
000220009.hru000220009.mgt000220009.sol000220009.chm 000220009.gw
000220010.hru000220010.mgt000220010.sol000220010.chm 000220010.gw
000220011.hru000220011.mgt000220011.sol000220011.chm 000220011.gw
