 .chm file Watershed HRU:110 Subbasin:21 HRU:4 Luse:SWRN Soil: GSCDT Slope: 40-60 2013/5/3 0:00:00 ArcSWAT 2.3.4
Soil Nutrient Data
 Soil Layer               :           1           2           3           4           5           6           7           8           9          10
 Soil NO3 [mg/kg]         :        0.00        0.00        0.00        0.00        0.00        0.00        0.00        0.00        0.00        0.00
 Soil organic N [mg/kg]   :        0.00        0.00        0.00        0.00        0.00        0.00        0.00        0.00        0.00        0.00
 Soil labile P [mg/kg]    :        0.00        0.00        0.00        0.00        0.00        0.00        0.00        0.00        0.00        0.00
 Soil organic P [mg/kg]   :        0.00        0.00        0.00        0.00        0.00        0.00        0.00        0.00        0.00        0.00

Soil Pesticide Data
 Pesticide  Pst on plant    Pst in 1st soil layer Pst enrichment
   #           [kg/ha]           [kg/ha]           [kg/ha]
   0              0.00              0.00              0.00
   0              0.00              0.00              0.00
   0              0.00              0.00              0.00
   0              0.00              0.00              0.00
   0              0.00              0.00              0.00
   0              0.00              0.00              0.00
   0              0.00              0.00              0.00
   0              0.00              0.00              0.00
   0              0.00              0.00              0.00
   0              0.00              0.00              0.00
