 .sub file Subbasin: 26 2013/5/3 0:00:00 ArcSWAT 2.3.4
      497.666700    | SUB_KM : Subbasin area [km2]

Climate in subbasin
       38.786229    | LATITUDE : Latitude of subbasin [degrees]
         3878.00    | ELEV : Elevation of subbasin [m]
               2    | IRGAGE: precip gage data used in subbasin
               2    | ITGAGE: temp gage data used in subbasin
               2    | ISGAGE: solar radiation gage data used in subbasin
               2    | IHGAGE: relative humidity gage data used in subbasin
               2    | IWGAGE: wind speed gage data used in subbasin
000260000.wgn       | WGNFILE: name of weather generator data file
               1    | FCST_REG: Region number used to assign forecast data to the subbasin
Elevation Bands
| ELEVB: Elevation at center of elevation bands [m]
3610.0004110.0004610.0005199.000   0.000   0.000   0.000   0.000   0.000   0.000
| ELEVB_FR: Fraction of subbasin area within elevation band
   0.271   0.408   0.256   0.065   0.000   0.000   0.000   0.000   0.000   0.000
| SNOEB: Initial snow water content in elevation band [mm]
   0.000   0.000   0.000   0.000   0.000   0.000   0.000   0.000   0.000   0.000
          14.000    | PLAPS : Precipitation lapse rate [mm/km]
          -6.600    | TLAPS : Temperature lapse rate [°„C/km]
         150.000    | SNO_SUB : Initial snow water content [mm]
Tributary Channels
          36.146    | CH_L1 : Longest tributary channel length [km]
           0.055    | CH_S1 : Average slope of tributary channel [m/m]
          53.549    | CH_W1 : Average width of tributary channel [mm/km]
           2.000    | CH_K1 : Effective hydraulic conductivity in tributary channel [mm/hr]
           0.014    | CH_N1 : Manning's "n" value for the tributary channels
Impoundments
000260000.pnd       | PNDFILE: name of subbasin impoundment file
Consumptive Water Use
000260000.wus       | WUSFILE: name of subbasin water use file
Climate Change
         330.000    | CO2 : Carbon dioxide concentration [ppmv]
| RFINC:  Climate change monthly rainfall adjustment (January - June)
   0.000   0.000   0.000   0.000   0.000   0.000
| RFINC:  Climate change monthly rainfall adjustment (July - December)
   0.000   0.000   0.000   0.000   0.000   0.000
| TMPINC: Climate change monthly temperature adjustment (January - June)
   0.000   0.000   0.000   0.000   0.000   0.000
| TMPINC: Climate change monthly temperature adjustment (July - December)
   0.000   0.000   0.000   0.000   0.000   0.000
| RADINC: Climate change monthly radiation adjustment (January - June)
   0.000   0.000   0.000   0.000   0.000   0.000
| RADINC: Climate change monthly radiation adjustment (July - December)
   0.000   0.000   0.000   0.000   0.000   0.000
| HUMINC: Climate change monthly humidity adjustment (January - June)
   0.000   0.000   0.000   0.000   0.000   0.000
| HUMINC: Climate change monthly humidity adjustment (July - December)
   0.000   0.000   0.000   0.000   0.000   0.000
| HRU data
               9    | HRUTOT : Total number of HRUs modeled in subbasin

HRU: Depressional Storage/Pothole

Floodplain

HRU: Riparian

HRU: General
000260001.hru000260001.mgt000260001.sol000260001.chm 000260001.gw
000260002.hru000260002.mgt000260002.sol000260002.chm 000260002.gw
000260003.hru000260003.mgt000260003.sol000260003.chm 000260003.gw
000260004.hru000260004.mgt000260004.sol000260004.chm 000260004.gw
000260005.hru000260005.mgt000260005.sol000260005.chm 000260005.gw
000260006.hru000260006.mgt000260006.sol000260006.chm 000260006.gw
000260007.hru000260007.mgt000260007.sol000260007.chm 000260007.gw
000260008.hru000260008.mgt000260008.sol000260008.chm 000260008.gw
000260009.hru000260009.mgt000260009.sol000260009.chm 000260009.gw
