 .Sol file Watershed HRU:232 Subbasin:39 HRU:5 Luse:SWRN Soil: YGSCDT Slope: 0-20 2013/5/3 0:00:00 ArcSWAT 2.3.4
 Soil Name: YGSCDT
 Soil Hydrologic Group: C
 Maximum rooting depth(m) : 1050.00
 Porosity fraction from which anions are excluded: 0.500
 Crack volume potential of soil: 0.500
 Texture 1                : L-SIL
 Depth                [mm]:      350.00      650.00     1050.00
 Bulk Density Moist [g/cc]:        1.31        1.27        1.27
 Ave. AW Incl. Rock Frag  :        0.12        0.12        0.12
 Ksat. (est.)      [mm/hr]:        2.29        2.23        0.80
 Organic Carbon [weight %]:       10.00        2.26        0.84
 Clay           [weight %]:       24.19       29.45       24.08
 Silt           [weight %]:       47.00       51.37       57.46
 Sand           [weight %]:       28.81       19.18       18.46
 Rock Fragments   [vol. %]:       11.00        6.50        5.50
 Soil Albedo (Moist)      :        0.18        0.21        0.22
 Erosion K                :        0.27        0.29        0.38
 Salinity (EC, Form 5)    :        0.00        0.00        0.00
                              
