 .Sol file Watershed HRU:228 Subbasin:39 HRU:1 Luse:PAST Soil: CDZZT Slope: 0-20 2013/5/3 0:00:00 ArcSWAT 2.3.4
 Soil Name: CDZZT
 Soil Hydrologic Group: D
 Maximum rooting depth(m) : 1020.00
 Porosity fraction from which anions are excluded: 0.500
 Crack volume potential of soil: 0.500
 Texture 1                : SILTY 
 Depth                [mm]:      230.00      310.00      420.00      710.00      890.00     1020.00
 Bulk Density Moist [g/cc]:        1.31        1.32        1.32        1.28        1.25        1.31
 Ave. AW Incl. Rock Frag  :        0.12        0.12        0.13        0.12        0.12        0.13
 Ksat. (est.)      [mm/hr]:        0.37        0.86        0.95        0.32        0.58        1.33
 Organic Carbon [weight %]:        3.71        0.90        0.64        0.50        0.50        0.56
 Clay           [weight %]:       20.10       25.60       28.40       18.60       20.70       33.50
 Silt           [weight %]:       55.88       51.66       50.52       58.89       60.92       50.22
 Sand           [weight %]:       24.02       22.74       21.08       22.51       18.38       16.28
 Rock Fragments   [vol. %]:        0.00        0.00        0.00        0.00        0.00        0.00
 Soil Albedo (Moist)      :        0.21        0.22        0.22        0.22        0.22        0.22
 Erosion K                :        0.29        0.36        0.37        0.40        0.41        0.37
 Salinity (EC, Form 5)    :        0.00        0.00        0.00        0.00        0.00        0.00
                              
