 .gw file Watershed HRU:229 Subbasin:39 HRU:2 Luse:PAST Soil: GSCDT Slope: 0-20 2013/5/3 0:00:00 ArcSWAT 2.3.4
        100.0000    | SHALLST : Initial depth of water in the shallow aquifer [mm]
        300.0000    | DEEPST : Initial depth of water in the deep aquifer [mm]
         15.7000    | GW_DELAY : Groundwater delay [days]
          0.5500    | ALPHA_BF : BAseflow alpha factor [days]
        700.0000    | GWQMN : Threshold depth of water in the shallow aquifer required for return flow to occur [mm]
          0.0959    | GW_REVAP : Groundwater "revap" coefficient
         16.1600    | REVAPMN: Threshold depth of water in the shallow aquifer for "revap" to occur [mm]
          0.4000    | RCHRG_DP : Deep aquifer percolation fraction
          1.0000    | GWHT : Initial groundwater height [m]
          0.0030    | GW_SPYLD : Specific yield of the shallow aquifer [m3/m3]
          0.0000    | SHALLST_N : Initial concentration of nitrate in shallow aquifer [mg N/l]
          0.0000    | GWSOLP : Concentration of soluble phosphorus in groundwater contribution to streamflow from subbasin [mg P/l]
          0.0000    | HLIFE_NGW : Ha;f-life of nitrate in the shallow aquifer [days]
