 .Sol file Watershed HRU:222 Subbasin:37 HRU:2 Luse:SWRN Soil: HMFST Slope: 0-20 2013/5/3 0:00:00 ArcSWAT 2.3.4
 Soil Name: HMFST
 Soil Hydrologic Group: B
 Maximum rooting depth(m) :  550.00
 Porosity fraction from which anions are excluded: 0.500
 Crack volume potential of soil: 0.500
 Texture 1                : SIL-UWB
 Depth                [mm]:      180.00      360.00      550.00     1000.00
 Bulk Density Moist [g/cc]:        1.58        1.56        1.61        1.58
 Ave. AW Incl. Rock Frag  :        0.05        0.05        0.04        0.04
 Ksat. (est.)      [mm/hr]:       48.91       74.06       50.44       75.76
 Organic Carbon [weight %]:        0.50        0.50        0.50        0.50
 Clay           [weight %]:        5.31        5.15        1.26        4.28
 Silt           [weight %]:       11.97        8.37       11.85        7.88
 Sand           [weight %]:       82.72       86.48       86.89       87.84
 Rock Fragments   [vol. %]:        0.00        0.00        0.00        0.00
 Soil Albedo (Moist)      :        0.22        0.22        0.22        0.22
 Erosion K                :        0.15        0.12        0.13        0.11
 Salinity (EC, Form 5)    :        0.00        0.00        0.00        0.00
                              
