 .sub file Subbasin: 33 2013/5/3 0:00:00 ArcSWAT 2.3.4
      295.200000    | SUB_KM : Subbasin area [km2]

Climate in subbasin
       38.554153    | LATITUDE : Latitude of subbasin [degrees]
         4186.00    | ELEV : Elevation of subbasin [m]
               2    | IRGAGE: precip gage data used in subbasin
               2    | ITGAGE: temp gage data used in subbasin
               2    | ISGAGE: solar radiation gage data used in subbasin
               2    | IHGAGE: relative humidity gage data used in subbasin
               2    | IWGAGE: wind speed gage data used in subbasin
000330000.wgn       | WGNFILE: name of weather generator data file
               1    | FCST_REG: Region number used to assign forecast data to the subbasin
Elevation Bands
| ELEVB: Elevation at center of elevation bands [m]
3857.0004357.0004857.0005447.000   0.000   0.000   0.000   0.000   0.000   0.000
| ELEVB_FR: Fraction of subbasin area within elevation band
   0.195   0.331   0.354   0.120   0.000   0.000   0.000   0.000   0.000   0.000
| SNOEB: Initial snow water content in elevation band [mm]
   0.000   0.000   0.000   0.000   0.000   0.000   0.000   0.000   0.000   0.000
          17.000    | PLAPS : Precipitation lapse rate [mm/km]
          -6.600    | TLAPS : Temperature lapse rate [°„C/km]
         150.000    | SNO_SUB : Initial snow water content [mm]
Tributary Channels
          47.652    | CH_L1 : Longest tributary channel length [km]
           0.039    | CH_S1 : Average slope of tributary channel [m/m]
          39.143    | CH_W1 : Average width of tributary channel [mm/km]
           2.000    | CH_K1 : Effective hydraulic conductivity in tributary channel [mm/hr]
           0.014    | CH_N1 : Manning's "n" value for the tributary channels
Impoundments
000330000.pnd       | PNDFILE: name of subbasin impoundment file
Consumptive Water Use
000330000.wus       | WUSFILE: name of subbasin water use file
Climate Change
         330.000    | CO2 : Carbon dioxide concentration [ppmv]
| RFINC:  Climate change monthly rainfall adjustment (January - June)
   0.000   0.000   0.000   0.000   0.000   0.000
| RFINC:  Climate change monthly rainfall adjustment (July - December)
   0.000   0.000   0.000   0.000   0.000   0.000
| TMPINC: Climate change monthly temperature adjustment (January - June)
   0.000   0.000   0.000   0.000   0.000   0.000
| TMPINC: Climate change monthly temperature adjustment (July - December)
   0.000   0.000   0.000   0.000   0.000   0.000
| RADINC: Climate change monthly radiation adjustment (January - June)
   0.000   0.000   0.000   0.000   0.000   0.000
| RADINC: Climate change monthly radiation adjustment (July - December)
   0.000   0.000   0.000   0.000   0.000   0.000
| HUMINC: Climate change monthly humidity adjustment (January - June)
   0.000   0.000   0.000   0.000   0.000   0.000
| HUMINC: Climate change monthly humidity adjustment (July - December)
   0.000   0.000   0.000   0.000   0.000   0.000
| HRU data
               8    | HRUTOT : Total number of HRUs modeled in subbasin

HRU: Depressional Storage/Pothole

Floodplain

HRU: Riparian

HRU: General
000330001.hru000330001.mgt000330001.sol000330001.chm 000330001.gw
000330002.hru000330002.mgt000330002.sol000330002.chm 000330002.gw
000330003.hru000330003.mgt000330003.sol000330003.chm 000330003.gw
000330004.hru000330004.mgt000330004.sol000330004.chm 000330004.gw
000330005.hru000330005.mgt000330005.sol000330005.chm 000330005.gw
000330006.hru000330006.mgt000330006.sol000330006.chm 000330006.gw
000330007.hru000330007.mgt000330007.sol000330007.chm 000330007.gw
000330008.hru000330008.mgt000330008.sol000330008.chm 000330008.gw
