 .hru file Watershed HRU:224 Subbasin:38 HRU:2 Luse:SWRN Soil: GSCDT Slope 60-9999 2013/5/3 0:00:00 ArcSWAT 2.3.4
       0.0802404    | HRU_FR : Fraction of subbasin area contained in HRU
           9.146    | SLSUBBSN : Average slope length [m]
           0.712    | HRU_SLP : Average slope stepness [m/m]
           0.150    | OV_N : Manning's "n" value for overland flow
           5.000    | LAT_TTIME : Lateral flow travel time [days]
           0.000    | LAT_SED : Sediment concentration in lateral flow and groundwater flow [mg/l]
           0.000    | SLSOIL : Slope length for lateral subsurface flow [m]
           0.000    | CANMX : Maximum canopy storage [mm]
           0.950    | ESCO : Soil evaporation compensation factor
           1.000    | EPCO : Plant uptake compensation factor
           0.000    | RSDIN : Initial residue cover [kg/ha]
           0.000    | ERORGN : Organic N enrichment ratio
           0.000    | ERORGP : Organic P enrichment ratio
           0.000    | POT_FR : Fraction of HRU are that drains into pothole
           0.000    | FLD_FR : Fraction of HRU that drains into floodplain
           0.000    | RIP_FR : Fraction of HRU that drains into riparian zone
Special HRU: Pothole
           0.000    | POT_TILE : Average daily outflow to main channel from tile flow [mm]
           0.000    | POT_VOLX : Maximum volume of water stored in the pothole [mm]
           0.000    | POT_VOL : Initial volume of water stored in pothole [mm]
           0.000    | POT_NSED : Normal sediment concentration in pothole [mg/l]
           0.000    | POT_NO3L : Nitrate decay rate in pothole [1/day]
            6000    | DEP_IMP : Depth to impervious layer in soil profile [mm]
             0.0    | DIS_STREAM: Average distance to stream [m]
