 .Wgn file Subbasin: 31 STATION NAME:WGN52633 2013/5/3 0:00:00 ArcSWAT 2.3.4
  LATITUDE =  38.80 LONGITUDE =  98.42
  ELEV [m] =3368.00
  RAIN_YRS =  10.00
-19.40-14.70 -3.60  8.00 13.10 16.20 18.00 17.90 14.00  6.90 -3.80-14.60
-31.60-28.30-17.30 -5.60 -1.00  2.50  4.20  3.00 -1.50 -8.50-17.30-26.40
  6.10  6.00  6.40  5.50  4.60  3.70  3.40  3.80  4.50  5.50  6.70  6.50
  6.00  6.60  7.70  4.50  3.50  3.00  2.90  3.30  3.50  4.70  6.20  6.20
 11.80 12.20 14.60 18.30 35.50 66.10 73.70 62.80 33.50 12.00 12.40 12.70
  0.50  0.60  0.70  1.10  2.20  3.70  4.20  4.10  2.30  0.70  0.70  0.70
  1.60  4.50  4.70  5.70  5.80  3.30  3.80  4.00  4.60  3.80  4.20  8.80
  0.30  0.30  0.40  0.40  0.50  0.60  0.60  0.50  0.40  0.20  0.30  0.30
  0.70  0.70  0.70  0.60  0.70  0.80  0.80  0.70  0.70  0.60  0.60  0.70
 15.30 14.70 16.50 16.00 20.90 23.80 24.10 21.40 17.20 11.50 12.90 16.20
  0.00  0.00  0.00  0.00  0.00  0.00  0.00  0.00  0.00  0.00  0.00  0.00
  7.86 11.31 15.71 19.63 21.79 22.20 22.00 20.64 17.41 13.46  8.81  6.55
-26.60-22.53-12.63 -4.06  0.64  4.45  6.56  5.76  1.66 -4.85-12.78-21.71
  1.33  1.80  2.97  3.85  3.87  3.32  3.04  2.89  2.94  2.93  2.23  1.48
