 .sub file Subbasin: 37 2013/5/3 0:00:00 ArcSWAT 2.3.4
        0.724500    | SUB_KM : Subbasin area [km2]

Climate in subbasin
       38.442922    | LATITUDE : Latitude of subbasin [degrees]
         3827.00    | ELEV : Elevation of subbasin [m]
               2    | IRGAGE: precip gage data used in subbasin
               2    | ITGAGE: temp gage data used in subbasin
               2    | ISGAGE: solar radiation gage data used in subbasin
               2    | IHGAGE: relative humidity gage data used in subbasin
               2    | IWGAGE: wind speed gage data used in subbasin
000370000.wgn       | WGNFILE: name of weather generator data file
               1    | FCST_REG: Region number used to assign forecast data to the subbasin
Elevation Bands
| ELEVB: Elevation at center of elevation bands [m]
   0.000   0.000   0.000   0.000   0.000   0.000   0.000   0.000   0.000   0.000
| ELEVB_FR: Fraction of subbasin area within elevation band
   0.000   0.000   0.000   0.000   0.000   0.000   0.000   0.000   0.000   0.000
| SNOEB: Initial snow water content in elevation band [mm]
   0.000   0.000   0.000   0.000   0.000   0.000   0.000   0.000   0.000   0.000
          19.000    | PLAPS : Precipitation lapse rate [mm/km]
          -6.600    | TLAPS : Temperature lapse rate [°„C/km]
         150.000    | SNO_SUB : Initial snow water content [mm]
Tributary Channels
           3.455    | CH_L1 : Longest tributary channel length [km]
           0.003    | CH_S1 : Average slope of tributary channel [m/m]
           1.063    | CH_W1 : Average width of tributary channel [mm/km]
           2.000    | CH_K1 : Effective hydraulic conductivity in tributary channel [mm/hr]
           0.014    | CH_N1 : Manning's "n" value for the tributary channels
Impoundments
000370000.pnd       | PNDFILE: name of subbasin impoundment file
Consumptive Water Use
000370000.wus       | WUSFILE: name of subbasin water use file
Climate Change
         330.000    | CO2 : Carbon dioxide concentration [ppmv]
| RFINC:  Climate change monthly rainfall adjustment (January - June)
   0.000   0.000   0.000   0.000   0.000   0.000
| RFINC:  Climate change monthly rainfall adjustment (July - December)
   0.000   0.000   0.000   0.000   0.000   0.000
| TMPINC: Climate change monthly temperature adjustment (January - June)
   0.000   0.000   0.000   0.000   0.000   0.000
| TMPINC: Climate change monthly temperature adjustment (July - December)
   0.000   0.000   0.000   0.000   0.000   0.000
| RADINC: Climate change monthly radiation adjustment (January - June)
   0.000   0.000   0.000   0.000   0.000   0.000
| RADINC: Climate change monthly radiation adjustment (July - December)
   0.000   0.000   0.000   0.000   0.000   0.000
| HUMINC: Climate change monthly humidity adjustment (January - June)
   0.000   0.000   0.000   0.000   0.000   0.000
| HUMINC: Climate change monthly humidity adjustment (July - December)
   0.000   0.000   0.000   0.000   0.000   0.000
| HRU data
               2    | HRUTOT : Total number of HRUs modeled in subbasin

HRU: Depressional Storage/Pothole

Floodplain

HRU: Riparian

HRU: General
000370001.hru000370001.mgt000370001.sol000370001.chm 000370001.gw
000370002.hru000370002.mgt000370002.sol000370002.chm 000370002.gw
