1
    SWAT  Sept '05 VERSION2005                                                                           0/ 0/   0      0: 0: 0

    General Input/Output section (file.cio): ArcSWAT 2.3.4                          
    2013/5/29 0:00:00ARCGIS-SWAT interface AV                                       
                                                                                    
         Number of years in run:   10
         Area of watershed:    11050.589 km2
1
    SWAT  Sept '05 VERSION2005                                                      

    General Input/Output section (file.cio): ArcSWAT 2.3.4                          
    2013/5/29 0:00:00ARCGIS-SWAT interface AV                                       
                                                                                    
Annual Summary for Watershed in year    1 of simulation

 UNIT                              PERCO   TILE                       WATER    SED    NO3    NO3    NO3    NO3        N       P       P
 TIME   PREC   SURQ   LATQ    GWQ   LATE      Q    SW     ET     PET  YIELD  YIELD   SURQ   LATQ   PERC   CROP  ORGANIC SOLUBLE ORGANIC
        (mm)   (mm)   (mm)   (mm)   (mm)   (mm)   (mm)   (mm)   (mm)   (mm) (t/ha)  -----------------(kg nutrient/ha)------------------
    1   0.00   0.00   0.00   0.00   0.00   0.00   2.71   0.14   1.69   0.00   0.00   0.00   0.00   0.00   0.00     0.00    0.00    0.00
    2   0.09   0.00   0.00   0.00   0.00   0.00   1.72   0.04   0.89   0.00   0.00   0.00   0.00   0.00   0.00     0.00    0.00    0.00
    3   2.09   0.00   0.00   0.00   0.00   0.00   2.97   0.08   2.55   0.00   0.00   0.00   0.00   0.00   0.00     0.00    0.00    0.00
    4   3.14   0.00   0.00   0.00   0.06   0.00   2.85   0.68   5.12   0.00   0.00   0.00   0.00   0.01   0.00     0.00    0.00    0.00
    5   1.92   0.00   0.00   0.00   0.69   0.00   1.78   1.14   5.24   0.00   0.00   0.00   0.00   0.13   0.00     0.00    0.00    0.00
    6   7.26   0.00   0.00   0.00   6.32   0.00   1.73   2.11   5.46   0.00   0.00   0.00   0.00   0.67   0.00     0.00    0.00    0.00
    7   4.71   0.00   0.00   0.00   4.62   0.00   1.14   0.45  12.42   0.00   0.00   0.00   0.00   0.14   0.00     0.00    0.00    0.00
    8   7.09   0.00   0.00   0.00   6.44   0.00   2.18   1.16  11.44   0.00   0.00   0.00   0.00   0.12   0.00     0.00    0.00    0.00
    9   4.99   0.00   0.00   0.00   1.94   0.00   1.93   0.41   5.37   0.00   0.00   0.00   0.00   0.02   0.00     0.00    0.00    0.00
   10   1.18   0.00   0.00   0.00   0.15   0.00   1.33   0.17   0.80   0.00   0.00   0.00   0.00   0.00   0.00     0.00    0.00    0.00
   11   0.58   0.00   0.00   0.00   0.00   0.00   0.78   0.00   0.22   0.00   0.00   0.00   0.00   0.00   0.00     0.00    0.00    0.00
   12   0.06   0.00   0.00   0.00   0.00   0.00   1.91   0.00   0.10   0.00   0.00   0.00   0.00   0.00   0.00     0.00    0.00    0.00

 1961  42.48   0.00   0.00   0.00  27.10   0.00   1.91  10.29  59.62   0.00   0.00   0.00   0.00   1.71   0.00     0.00    0.00    0.00
1
    SWAT  Sept '05 VERSION2005                                                      

    General Input/Output section (file.cio): ArcSWAT 2.3.4                          
    2013/5/29 0:00:00ARCGIS-SWAT interface AV                                       
                                                                                    
Annual Summary for Watershed in year    2 of simulation

 UNIT                              PERCO   TILE                       WATER    SED    NO3    NO3    NO3    NO3        N       P       P
 TIME   PREC   SURQ   LATQ    GWQ   LATE      Q    SW     ET     PET  YIELD  YIELD   SURQ   LATQ   PERC   CROP  ORGANIC SOLUBLE ORGANIC
        (mm)   (mm)   (mm)   (mm)   (mm)   (mm)   (mm)   (mm)   (mm)   (mm) (t/ha)  -----------------(kg nutrient/ha)------------------
    1   0.11   0.00   0.00   0.00   0.00   0.00   1.91   0.00   0.11   0.00   0.00   0.00   0.00   0.00   0.00     0.00    0.00    0.00
    2   0.07   0.00   0.00   0.00   0.00   0.00   0.78   0.00   0.85   0.00   0.00   0.00   0.00   0.00   0.00     0.00    0.00    0.00
    3   0.02   0.00   0.00   0.00   0.00   0.00   1.31   0.01   3.04   0.00   0.00   0.00   0.00   0.00   0.00     0.00    0.00    0.00
    4   0.55   0.00   0.00   0.00   0.04   0.00   1.85   0.86   7.62   0.00   0.00   0.00   0.00   0.00   0.00     0.00    0.00    0.00
    5   7.25   0.00   0.00   0.00   3.42   0.00   1.83   1.59   8.82   0.00   0.00   0.00   0.00   0.03   0.00     0.00    0.00    0.00
    6   3.93   0.00   0.00   0.00   3.56   0.00   0.75   1.95   5.75   0.00   0.00   0.00   0.00   0.01   0.00     0.00    0.00    0.00
    7  13.62   0.00   0.00   0.00  13.02   0.00   1.81   2.38   6.23   0.00   0.00   0.00   0.00   0.04   0.00     0.00    0.00    0.00
    8  11.39   0.00   0.00   0.00   9.78   0.00   1.83   1.91  11.26   0.00   0.00   0.00   0.00   0.04   0.00     0.00    0.00    0.00
    9   3.00   0.00   0.00   0.00   2.68   0.00   0.70   0.63   2.83   0.00   0.00   0.00   0.00   0.01   0.00     0.00    0.00    0.00
   10   0.49   0.00   0.00   0.00   0.03   0.00   1.82   0.00   1.78   0.00   0.00   0.00   0.00   0.00   0.00     0.00    0.00    0.00
   11   0.38   0.00   0.00   0.00   0.00   0.00   1.28   0.00   0.50   0.00   0.00   0.00   0.00   0.00   0.00     0.00    0.00    0.00
   12   0.00   0.00   0.00   0.00   0.00   0.00   1.82   0.00   0.29   0.00   0.00   0.00   0.00   0.00   0.00     0.00    0.00    0.00

 1962  26.32   0.00   0.00   0.00  22.56   0.00   0.70   5.38  42.65   0.00   0.00   0.00   0.00   0.08   0.00     0.00    0.00    0.00
1
    SWAT  Sept '05 VERSION2005                                                      

    General Input/Output section (file.cio): ArcSWAT 2.3.4                          
    2013/5/29 0:00:00ARCGIS-SWAT interface AV                                       
                                                                                    
Annual Summary for Watershed in year    3 of simulation

 UNIT                              PERCO   TILE                       WATER    SED    NO3    NO3    NO3    NO3        N       P       P
 TIME   PREC   SURQ   LATQ    GWQ   LATE      Q    SW     ET     PET  YIELD  YIELD   SURQ   LATQ   PERC   CROP  ORGANIC SOLUBLE ORGANIC
        (mm)   (mm)   (mm)   (mm)   (mm)   (mm)   (mm)   (mm)   (mm)   (mm) (t/ha)  -----------------(kg nutrient/ha)------------------
    1   0.04   0.00   0.00   0.00   0.00   0.00   1.81   0.00   1.49   0.00   0.00   0.00   0.00   0.00   0.00     0.00    0.00    0.00
    2   0.17   0.00   0.00   0.00   0.00   0.00   1.81   0.00   1.53   0.00   0.00   0.00   0.00   0.00   0.00     0.00    0.00    0.00
    3   1.37   0.00   0.00   0.00   0.00   0.00   1.80   0.01   3.17   0.00   0.00   0.00   0.00   0.00   0.00     0.00    0.00    0.00
    4   0.55   0.00   0.00   0.00   0.02   0.00   1.26   0.57   4.42   0.00   0.00   0.00   0.00   0.00   0.00     0.00    0.00    0.00
    5   4.85   0.00   0.00   0.00   3.71   0.00   0.70   1.29   4.02   0.00   0.00   0.00   0.00   0.01   0.00     0.00    0.00    0.00
    6   5.06   0.00   0.00   0.00   3.34   0.00   1.79   2.85   8.66   0.00   0.00   0.00   0.00   0.01   0.00     0.00    0.00    0.00
    7  14.27   0.00   0.00   0.00  11.09   0.00   2.10   1.76   5.30   0.00   0.00   0.00   0.00   0.05   0.00     0.00    0.00    0.00
    8  10.09   0.02   0.07   0.00   2.08   0.00  11.04   2.07   5.54   0.08   0.01   0.00   0.00   0.07   0.00     0.07    0.00    0.01
    9   6.37   0.36   0.01   0.00   0.89   0.00  14.66   1.53   4.68   0.29   0.14   0.00   0.00   0.01   0.00     1.50    0.00    0.18
   10   0.38   0.00   0.00   0.00   0.01   0.00   4.63   0.12   1.46   0.00   0.00   0.00   0.00   0.00   0.00     0.00    0.00    0.00
   11   0.58   0.00   0.00   0.00   0.00   0.00  14.11   0.12   0.78   0.00   0.00   0.00   0.00   0.00   0.00     0.00    0.00    0.00
   12   0.13   0.00   0.00   0.00   0.00   0.00  10.95   0.06   0.31   0.00   0.00   0.00   0.00   0.00   0.00     0.00    0.00    0.00

 1963  62.85   0.39   0.02   0.00  33.19   0.00  14.04  13.23  48.68   0.30   0.14   0.00   0.00   0.24   0.00     1.50    0.00    0.18
1
    SWAT  Sept '05 VERSION2005                                                      

    General Input/Output section (file.cio): ArcSWAT 2.3.4                          
    2013/5/29 0:00:00ARCGIS-SWAT interface AV                                       
                                                                                    
Annual Summary for Watershed in year    4 of simulation

 UNIT                              PERCO   TILE                       WATER    SED    NO3    NO3    NO3    NO3        N       P       P
 TIME   PREC   SURQ   LATQ    GWQ   LATE      Q    SW     ET     PET  YIELD  YIELD   SURQ   LATQ   PERC   CROP  ORGANIC SOLUBLE ORGANIC
        (mm)   (mm)   (mm)   (mm)   (mm)   (mm)   (mm)   (mm)   (mm)   (mm) (t/ha)  -----------------(kg nutrient/ha)------------------
    1   0.16   0.00   0.00   0.00   0.00   0.00  10.91   0.04   0.21   0.00   0.00   0.00   0.00   0.00   0.00     0.00    0.00    0.00
    2   0.48   0.00   0.00   0.00   0.00   0.00  10.81   0.10   0.57   0.00   0.00   0.00   0.00   0.00   0.00     0.00    0.00    0.00
    3   1.13   0.00   0.00   0.00   0.00   0.00  13.48   0.40   3.68   0.00   0.00   0.00   0.00   0.00   0.00     0.00    0.00    0.00
    4   2.46   0.00   0.00   0.00   0.14   0.00  11.32   1.27   3.53   0.00   0.00   0.00   0.00   0.00   0.00     0.00    0.00    0.00
    5  10.14   2.17   0.00   0.00   0.77   0.00  14.43   1.26   2.67   1.75   6.01   0.01   0.00   0.01   0.00    30.03    0.00    3.68
    6   6.95   0.78   0.00   0.00   4.49   0.00   7.29   1.80   3.84   0.62   1.11   0.00   0.00   0.00   0.00     5.30    0.00    0.65
    7  15.62   3.25   0.20   0.00   7.10   0.00  31.84   3.24   6.47   2.94   2.76   0.01   0.01   0.11   0.00    16.10    0.00    1.97
    8   8.63   1.71   0.37   0.00   0.42   0.00  38.57   3.44   7.13   1.87   1.46   0.00   0.00   0.25   0.00     7.10    0.00    0.87
    9   3.26   0.00   0.01   0.00   0.34   0.00  12.16   0.94   4.40   0.01   0.00   0.00   0.00   0.02   0.00     0.00    0.00    0.00
   10   0.10   0.00   0.00   0.00   0.00   0.00  11.86   0.32   1.06   0.00   0.00   0.00   0.00   0.00   0.00     0.00    0.00    0.00
   11   0.00   0.00   0.00   0.00   0.00   0.00  37.95   0.15   0.49   0.00   0.00   0.00   0.00   0.00   0.00     0.00    0.00    0.00
   12   0.17   0.00   0.00   0.00   0.00   0.00  37.82   0.13   0.43   0.00   0.00   0.00   0.00   0.00   0.00     0.00    0.00    0.00

 1964  55.58   3.07   0.28   0.00  22.15   0.00  24.76  12.60  37.63   2.89   1.84   0.01   0.01   0.69   0.00    13.48    0.00    1.65
1
    SWAT  Sept '05 VERSION2005                                                      

    General Input/Output section (file.cio): ArcSWAT 2.3.4                          
    2013/5/29 0:00:00ARCGIS-SWAT interface AV                                       
                                                                                    
Annual Summary for Watershed in year    5 of simulation

 UNIT                              PERCO   TILE                       WATER    SED    NO3    NO3    NO3    NO3        N       P       P
 TIME   PREC   SURQ   LATQ    GWQ   LATE      Q    SW     ET     PET  YIELD  YIELD   SURQ   LATQ   PERC   CROP  ORGANIC SOLUBLE ORGANIC
        (mm)   (mm)   (mm)   (mm)   (mm)   (mm)   (mm)   (mm)   (mm)   (mm) (t/ha)  -----------------(kg nutrient/ha)------------------
    1   0.00   0.00   0.00   0.00   0.00   0.00  11.62   0.10   0.52   0.00   0.00   0.00   0.00   0.00   0.00     0.00    0.00    0.00
    2   0.37   0.00   0.00   0.00   0.00   0.00  11.48   0.06   0.45   0.00   0.00   0.00   0.00   0.00   0.00     0.00    0.00    0.00
    3   0.40   0.00   0.00   0.00   0.00   0.00  11.23   0.26   2.52   0.00   0.00   0.00   0.00   0.00   0.00     0.00    0.00    0.00
    4   0.51   0.00   0.00   0.00   0.00   0.00  10.98   1.08   4.69   0.00   0.00   0.00   0.00   0.00   0.00     0.00    0.00    0.00
    5  11.71   0.57   0.00   0.00   0.20   0.00  38.99   1.94   6.69   0.48   0.44   0.00   0.00   0.10   0.00     2.23    0.00    0.27
    6   8.13   1.92   0.30   0.00   0.06   0.00  18.39   2.47   4.95   2.00   6.34   0.00   0.01   0.00   0.00     9.43    0.00    1.15
    7  15.25   6.81   0.14   0.00   0.09   0.00  53.57   3.23   6.49   5.69   6.58   0.02   0.00   0.07   0.00    24.32    0.00    2.98
    8  11.14   5.71   0.04   0.00   0.17   0.00  56.86   2.87   5.98   5.20   7.52   0.02   0.00   0.13   0.00    17.78    0.00    2.18
    9   2.28   0.02   0.03   0.00   0.34   0.00  55.56   2.48   5.63   0.04   0.00   0.00   0.00   0.26   0.00     0.00    0.00    0.00
   10   0.54   0.00   0.00   0.00   0.00   0.00  15.70   0.19   0.98   0.00   0.00   0.00   0.00   0.00   0.00     0.00    0.00    0.00
   11   0.14   0.00   0.00   0.00   0.00   0.00  24.76   0.18   0.68   0.00   0.00   0.00   0.00   0.00   0.00     0.00    0.00    0.00
   12   0.00   0.00   0.00   0.00   0.00   0.00  15.55   0.05   0.31   0.00   0.00   0.00   0.00   0.00   0.00     0.00    0.00    0.00

 1965  49.36  13.66   0.33   0.00   1.09   0.00  40.87  16.21  43.04  11.96  10.05   0.04   0.01   0.36   0.00    52.50    0.00    6.43
1
    SWAT  Sept '05 VERSION2005                                                      

    General Input/Output section (file.cio): ArcSWAT 2.3.4                          
    2013/5/29 0:00:00ARCGIS-SWAT interface AV                                       
                                                                                    
Annual Summary for Watershed in year    6 of simulation

 UNIT                              PERCO   TILE                       WATER    SED    NO3    NO3    NO3    NO3        N       P       P
 TIME   PREC   SURQ   LATQ    GWQ   LATE      Q    SW     ET     PET  YIELD  YIELD   SURQ   LATQ   PERC   CROP  ORGANIC SOLUBLE ORGANIC
        (mm)   (mm)   (mm)   (mm)   (mm)   (mm)   (mm)   (mm)   (mm)   (mm) (t/ha)  -----------------(kg nutrient/ha)------------------
    1   0.00   0.00   0.00   0.00   0.00   0.00  24.48   0.21   0.83   0.00   0.00   0.00   0.00   0.00   0.00     0.00    0.00    0.00
    2   0.25   0.00   0.00   0.00   0.00   0.00  53.65   0.36   1.22   0.00   0.00   0.00   0.00   0.00   0.00     0.00    0.00    0.00
    3   0.06   0.00   0.00   0.00   0.00   0.00  52.16   1.49   5.20   0.00   0.00   0.00   0.00   0.00   0.00     0.00    0.00    0.00
    4   2.69   0.00   0.00   0.00   0.00   0.00  50.61   2.22   6.91   0.00   0.00   0.00   0.00   0.00   0.00     0.00    0.00    0.00
    5   3.97   0.00   0.00   0.00   0.00   0.00  16.19   1.38   3.64   0.00   0.00   0.00   0.00   0.00   0.00     0.00    0.00    0.00
    6   2.92   0.24   0.07   0.00   0.30   0.00  18.21   2.43   5.08   0.20   0.39   0.00   0.00   0.02   0.00     0.74    0.00    0.09
    7  17.64  10.43   0.36   0.00   0.00   0.00  62.53   3.01   6.02   9.48  12.97   0.03   0.00   0.00   0.00    24.65    0.00    3.02
    8   6.36   0.00   0.38   0.00   4.45   0.00  12.51   4.03   9.32   0.38   0.00   0.00   0.01   0.40   0.00     0.00    0.00    0.00
    9   6.97   0.59   0.12   0.00   0.64   0.00  15.03   0.72   1.43   0.61   1.72   0.00   0.00   0.01   0.00     2.65    0.00    0.32
   10   1.06   0.02   0.00   0.00   0.00   0.00  30.12   0.65   1.30   0.01   0.00   0.00   0.00   0.00   0.00     0.01    0.00    0.00
   11   0.00   0.00   0.00   0.00   0.00   0.00  57.10   0.58   1.38   0.00   0.00   0.00   0.00   0.00   0.00     0.00    0.00    0.00
   12   0.19   0.00   0.00   0.00   0.00   0.00  56.72   0.38   1.15   0.00   0.00   0.00   0.00   0.00   0.00     0.00    0.00    0.00

 1966  49.56  11.38   1.30   0.00  21.69   0.00  32.10  19.04  45.83  10.65   8.43   0.04   0.02   5.09   0.00    27.66    0.00    3.39
1
    SWAT  Sept '05 VERSION2005                                                      

    General Input/Output section (file.cio): ArcSWAT 2.3.4                          
    2013/5/29 0:00:00ARCGIS-SWAT interface AV                                       
                                                                                    
Annual Summary for Watershed in year    7 of simulation

 UNIT                              PERCO   TILE                       WATER    SED    NO3    NO3    NO3    NO3        N       P       P
 TIME   PREC   SURQ   LATQ    GWQ   LATE      Q    SW     ET     PET  YIELD  YIELD   SURQ   LATQ   PERC   CROP  ORGANIC SOLUBLE ORGANIC
        (mm)   (mm)   (mm)   (mm)   (mm)   (mm)   (mm)   (mm)   (mm)   (mm) (t/ha)  -----------------(kg nutrient/ha)------------------
    1   0.00   0.00   0.00   0.00   0.00   0.00  29.35   0.10   0.30   0.00   0.00   0.00   0.00   0.00   0.00     0.00    0.00    0.00
    2   0.08   0.00   0.00   0.00   0.00   0.00  28.95   0.39   1.31   0.00   0.00   0.00   0.00   0.00   0.00     0.00    0.00    0.00
    3   0.65   0.00   0.00   0.00   0.00   0.00  55.13   0.90   3.62   0.00   0.00   0.00   0.00   0.00   0.00     0.00    0.00    0.00
    4   0.65   0.00   0.00   0.00   0.00   0.00  27.87   1.09   3.80   0.00   0.00   0.00   0.00   0.00   0.00     0.00    0.00    0.00
    5   6.76   0.91   0.00   0.00   0.15   0.00  15.83   1.64   3.36   0.66   1.74   0.00   0.00   0.00   0.00     3.84    0.00    0.47
    6   6.63   2.01   0.00   0.00   0.00   0.00  33.18   1.88   3.77   1.63   2.83   0.01   0.00   0.00   0.00     4.98    0.00    0.61
    7  12.76   8.58   0.07   0.00   0.00   0.00  68.18   3.05   6.09   7.46  12.80   0.03   0.00   0.00   0.00    14.81    0.00    1.81
    8   6.05   0.56   2.04   0.00   3.67   0.00  17.85   2.28   4.46   2.51   1.19   0.00   0.01   0.22   0.00     1.16    0.00    0.14
    9   2.18   0.02   0.46   0.00   1.24   0.00  16.23   2.12   5.50   0.48   0.01   0.00   0.00   0.09   0.00     0.02    0.00    0.00
   10   1.76   0.00   0.00   0.00   0.03   0.00  40.15   0.25   0.69   0.00   0.00   0.00   0.00   0.03   0.00     0.00    0.00    0.00
   11   0.70   0.00   0.00   0.00   0.00   0.00  40.04   0.12   0.42   0.00   0.00   0.00   0.00   0.00   0.00     0.00    0.00    0.00
   12   0.00   0.00   0.00   0.00   0.00   0.00  70.79   0.05   0.14   0.00   0.00   0.00   0.00   0.00   0.00     0.00    0.00    0.00

 1967  36.34  10.92   1.69   0.00   1.20   0.00  40.01  11.72  27.77  10.84  19.98   0.03   0.01   0.23   0.00    21.02    0.00    2.57
1
    SWAT  Sept '05 VERSION2005                                                      

    General Input/Output section (file.cio): ArcSWAT 2.3.4                          
    2013/5/29 0:00:00ARCGIS-SWAT interface AV                                       
                                                                                    
Annual Summary for Watershed in year    8 of simulation

 UNIT                              PERCO   TILE                       WATER    SED    NO3    NO3    NO3    NO3        N       P       P
 TIME   PREC   SURQ   LATQ    GWQ   LATE      Q    SW     ET     PET  YIELD  YIELD   SURQ   LATQ   PERC   CROP  ORGANIC SOLUBLE ORGANIC
        (mm)   (mm)   (mm)   (mm)   (mm)   (mm)   (mm)   (mm)   (mm)   (mm) (t/ha)  -----------------(kg nutrient/ha)------------------
    1   0.04   0.00   0.00   0.00   0.00   0.00  70.72   0.07   0.22   0.00   0.00   0.00   0.00   0.00   0.00     0.00    0.00    0.00
    2   0.27   0.00   0.00   0.00   0.00   0.00  16.15   0.08   0.59   0.00   0.00   0.00   0.00   0.00   0.00     0.00    0.00    0.00
    3   0.56   0.00   0.00   0.00   0.00   0.00  15.91   0.39   2.32   0.00   0.00   0.00   0.00   0.00   0.00     0.00    0.00    0.00
    4   0.61   0.00   0.00   0.00   0.00   0.00  68.47   2.24   6.14   0.00   0.00   0.00   0.00   0.00   0.00     0.00    0.00    0.00
    5   6.80   0.51   0.00   0.00   0.22   0.00  68.53   2.65   5.93   0.40   0.25   0.00   0.00   0.10   0.00     0.73    0.00    0.09
    6  12.93   4.78   0.00   0.00   0.36   0.00  56.51   2.14   4.28   3.77   2.94   0.01   0.00   0.04   0.00     7.61    0.00    0.93
    7   9.90   5.58   0.13   0.00   0.02   0.00  75.03   3.61   7.22   4.51   5.34   0.02   0.00   0.00   0.00     6.75    0.00    0.83
    8   5.77   0.36   0.66   0.00   1.83   0.00  19.79   3.31   7.19   0.98   0.65   0.00   0.00   0.12   0.00     0.55    0.00    0.07
    9   0.80   0.05   0.17   0.00   0.12   0.00  58.27   3.62   6.95   0.17   0.01   0.00   0.00   0.02   0.00     0.02    0.00    0.00
   10   2.00   0.00   0.00   0.00   0.04   0.00  41.38   0.31   1.01   0.00   0.00   0.00   0.00   0.04   0.00     0.00    0.00    0.00
   11   0.00   0.00   0.00   0.00   0.00   0.00  41.31   0.07   0.23   0.00   0.00   0.00   0.00   0.00   0.00     0.00    0.00    0.00
   12   0.00   0.00   0.00   0.00   0.00   0.00  72.78   0.23   0.68   0.00   0.00   0.00   0.00   0.00   0.00     0.00    0.00    0.00

 1968  32.05   8.20   1.79   0.00   2.56   0.00  41.19  13.26  31.43   8.76  18.30   0.03   0.00   0.37   0.00    15.57    0.00    1.91
1
    SWAT  Sept '05 VERSION2005                                                      

    General Input/Output section (file.cio): ArcSWAT 2.3.4                          
    2013/5/29 0:00:00ARCGIS-SWAT interface AV                                       
                                                                                    
Annual Summary for Watershed in year    9 of simulation

 UNIT                              PERCO   TILE                       WATER    SED    NO3    NO3    NO3    NO3        N       P       P
 TIME   PREC   SURQ   LATQ    GWQ   LATE      Q    SW     ET     PET  YIELD  YIELD   SURQ   LATQ   PERC   CROP  ORGANIC SOLUBLE ORGANIC
        (mm)   (mm)   (mm)   (mm)   (mm)   (mm)   (mm)   (mm)   (mm)   (mm) (t/ha)  -----------------(kg nutrient/ha)------------------
    1   0.34   0.00   0.00   0.00   0.00   0.00  72.58   0.21   0.65   0.00   0.00   0.00   0.00   0.00   0.00     0.00    0.00    0.00
    2   0.07   0.00   0.00   0.00   0.00   0.00  72.12   0.46   1.51   0.00   0.00   0.00   0.00   0.00   0.00     0.00    0.00    0.00
    3   0.45   0.00   0.00   0.00   0.00   0.00  40.28   0.62   2.45   0.00   0.00   0.00   0.00   0.00   0.00     0.00    0.00    0.00
    4   4.84   0.00   0.00   0.00   0.05   0.00  70.33   2.67   6.44   0.00   0.00   0.00   0.00   0.04   0.00     0.00    0.00    0.00
    5   6.05   1.10   0.00   0.00   0.13   0.00  42.20   2.47   4.96   0.91   2.16   0.00   0.00   0.02   0.00     2.82    0.00    0.35
    6   6.93   2.04   0.15   0.00   0.00   0.00  23.37   2.02   4.05   1.96   5.26   0.01   0.00   0.00   0.00     5.43    0.00    0.66
    7   9.17   4.30   0.63   0.00   0.56   0.00  44.95   2.45   4.84   4.28   7.64   0.01   0.00   0.09   0.00     5.74    0.00    0.70
    8   5.88   2.52   1.78   0.00   4.51   0.00  39.94   2.73   5.72   4.09   6.35   0.01   0.00   0.25   0.00     2.56    0.00    0.31
    9   2.80   0.13   0.01   0.00   0.11   0.00  40.06   1.37   3.63   0.10   0.11   0.00   0.00   0.12   0.00     0.02    0.00    0.00
   10   0.73   0.01   0.00   0.00   0.00   0.00  39.59   0.59   1.48   0.00   0.00   0.00   0.00   0.00   0.00     0.00    0.00    0.00
   11   0.09   0.00   0.00   0.00   0.00   0.00  16.40   0.14   0.74   0.00   0.00   0.00   0.00   0.00   0.00     0.00    0.00    0.00
   12   0.00   0.00   0.00   0.00   0.00   0.00  16.35   0.05   0.26   0.00   0.00   0.00   0.00   0.00   0.00     0.00    0.00    0.00

 1969  36.77  10.41   2.44   0.00   5.32   0.00  39.28  14.81  34.16  11.44  22.48   0.03   0.01   0.47   0.00    17.05    0.00    2.09
1
    SWAT  Sept '05 VERSION2005                                                      

    General Input/Output section (file.cio): ArcSWAT 2.3.4                          
    2013/5/29 0:00:00ARCGIS-SWAT interface AV                                       
                                                                                    
Annual Summary for Watershed in year   10 of simulation

 UNIT                              PERCO   TILE                       WATER    SED    NO3    NO3    NO3    NO3        N       P       P
 TIME   PREC   SURQ   LATQ    GWQ   LATE      Q    SW     ET     PET  YIELD  YIELD   SURQ   LATQ   PERC   CROP  ORGANIC SOLUBLE ORGANIC
        (mm)   (mm)   (mm)   (mm)   (mm)   (mm)   (mm)   (mm)   (mm)   (mm) (t/ha)  -----------------(kg nutrient/ha)------------------
    1   0.27   0.00   0.00   0.00   0.00   0.00  72.87   0.09   0.29   0.00   0.00   0.00   0.00   0.00   0.00     0.00    0.00    0.00
    2   0.13   0.00   0.00   0.00   0.00   0.00  38.92   0.31   1.18   0.00   0.00   0.00   0.00   0.00   0.00     0.00    0.00    0.00
    3   0.39   0.00   0.00   0.00   0.00   0.00  70.85   1.49   5.19   0.00   0.00   0.00   0.00   0.00   0.00     0.00    0.00    0.00
    4   1.79   0.00   0.00   0.00   0.00   0.00  37.37   1.15   4.26   0.00   0.00   0.00   0.00   0.00   0.00     0.00    0.00    0.00
    5   3.30   0.01   0.00   0.00   0.09   0.00  17.01   2.20   5.90   0.01   0.00   0.00   0.00   0.01   0.00     0.02    0.00    0.00
    6   4.75   1.21   0.00   0.00   0.13   0.00  39.57   2.51   5.09   1.04   2.56   0.00   0.00   0.00   0.00     3.12    0.00    0.38
    7  17.66  10.35   0.71   0.00   0.58   0.00  75.07   5.31  10.01   9.71  14.17   0.03   0.00   0.22   0.00    13.53    0.00    1.66
    8   9.27   3.12   1.30   0.00   1.31   0.00  38.69   3.14   5.97   4.04   6.26   0.01   0.00   0.22   0.00     1.95    0.00    0.24
    9   6.84   0.03   0.06   0.00   0.09   0.00  73.48   1.68   3.37   0.07   0.00   0.00   0.00   0.02   0.00     0.00    0.00    0.00
   10   0.02   0.00   0.00   0.00   0.00   0.00  38.03   0.65   1.66   0.00   0.00   0.00   0.00   0.00   0.00     0.00    0.00    0.00
   11   0.04   0.00   0.00   0.00   0.00   0.00  37.81   0.22   0.76   0.00   0.00   0.00   0.00   0.00   0.00     0.00    0.00    0.00
   12   0.13   0.00   0.00   0.00   0.00   0.00  71.82   0.20   0.65   0.00   0.00   0.00   0.00   0.00   0.00     0.00    0.00    0.00

 1970  36.75  10.22   2.35   0.00   4.82   0.00  37.69  17.05  39.46  11.30  20.49   0.03   0.00   0.45   0.00    13.33    0.00    1.63
1
    SWAT  Sept '05 VERSION2005                                                      

    General Input/Output section (file.cio): ArcSWAT 2.3.4                          
    2013/5/29 0:00:00ARCGIS-SWAT interface AV                                       
                                                                                    
    FINAL VALUES

1
    SWAT  Sept '05 VERSION2005                                                      

    General Input/Output section (file.cio): ArcSWAT 2.3.4                          
    2013/5/29 0:00:00ARCGIS-SWAT interface AV                                       
                                                                                    
                                            Average Crop Values
                                 Crop 1              Crop 2              Crop 3
                             Yld      Biomass   Yld      Biomass      Yld      Biomass
                           (kg/ha)    (kg/ha)  (kg/ha)   (kg/ha)     (kg/ha)    (kg/ha)

 SWRN  HRU      1 Rot   1     0.0       4.0       0.0       0.0       0.0       0.0
 SWRN  HRU      2 Rot   1     0.0      29.4       0.0      21.1       0.0       0.0
 SWRN  HRU      3 Rot   1     0.0      29.4       0.0      21.1       0.0       0.0
 PAST  HRU      4 Rot   1     0.0       1.1       0.0       1.2       0.0       0.0
 PAST  HRU      5 Rot   1     0.0       1.1       0.0       1.2       0.0       0.0
 SWRN  HRU      6 Rot   1     0.0       0.5       0.0       0.6       0.0       0.0
 SWRN  HRU      7 Rot   1     0.0       0.5       0.0       0.6       0.0       0.0
 SWRN  HRU      8 Rot   1     0.0       0.5       0.0       0.6       0.0       0.0
 SWRN  HRU      9 Rot   1     0.0       0.0       0.0       0.0       0.0       0.0
 SWRN  HRU     10 Rot   1     0.0       1.0       0.0       0.6       0.0       0.0
 SWRN  HRU     11 Rot   1     0.0       1.0       0.0       0.6       0.0       0.0
 PAST  HRU     12 Rot   1     0.0       1.8       0.0       1.9       0.0       0.0
 PAST  HRU     13 Rot   1     0.0       1.8       0.0       1.9       0.0       0.0
 PAST  HRU     14 Rot   1     0.0       1.8       0.0       1.9       0.0       0.0
 SWRN  HRU     15 Rot   1     0.0       1.0       0.0       1.0       0.0       0.0
 SWRN  HRU     16 Rot   1     0.0       1.0       0.0       1.0       0.0       0.0
 SWRN  HRU     17 Rot   1     0.0       1.0       0.0       1.0       0.0       0.0
 SWRN  HRU     18 Rot   1     0.0       0.0       0.0       0.0       0.0       0.0
 SWRN  HRU     19 Rot   1     0.0       0.0       0.0       0.0       0.0       0.0
 SWRN  HRU     20 Rot   1     0.0       0.0       0.0       0.0       0.0       0.0
 SWRN  HRU     21 Rot   1     0.0       4.3       0.0       2.6       0.0       0.0
 SWRN  HRU     22 Rot   1     0.0       4.3       0.0       2.6       0.0       0.0
 SWRN  HRU     23 Rot   1     0.0       4.3       0.0       2.6       0.0       0.0
 PAST  HRU     24 Rot   1     0.0       0.0       0.0       0.0       0.0       0.0
 SWRN  HRU     25 Rot   1     0.0       0.0       0.0       0.0       0.0       0.0
 SWRN  HRU     26 Rot   1     0.0       0.0       0.0       0.0       0.0       0.0
 PAST  HRU     27 Rot   1     0.0       1.1       0.0       1.2       0.0       0.0
 PAST  HRU     28 Rot   1     0.0       1.1       0.0       1.2       0.0       0.0
 SWRN  HRU     29 Rot   1     0.0       0.5       0.0       0.6       0.0       0.0
 SWRN  HRU     30 Rot   1     0.0       0.5       0.0       0.6       0.0       0.0
 SWRN  HRU     31 Rot   1     0.0       0.5       0.0       0.6       0.0       0.0
 PAST  HRU     32 Rot   1     0.0       0.0       0.0       0.0       0.0       0.0